[Rainmeter]
Update=1000
Author=Khinenw

[Metadata]
Name=Fluent Welcome
Information=Greets you when you first came to Fluent Skins!
Author=Khinenw
Version=2.0
License=MIT License

[Variables]
Height=350
@IncludeDefault=#@#Default.inc
Width=450

[StyleWelcomeText]
FontFace=#TextFont#
FontColor=#TextColor#
AntiAlias=1

[StyleButton]
FontColor=#IconColor#
FontSize=(12 * #Multiplier#)
SolidColor=#LabelColor#
Padding=25,10,25,10
StringAlign=RightCenter
InlinePattern=^(.)
InlineSetting=Face | #IconFont#

[MeterBackground]
[MeterLabel]
[MeterIcon]
Text=#IconSettings#

[MeterWelcome]
Meter=String
MeterStyle=StyleWelcomeText
FontSize=(21 * #Multiplier#)
FontWeight=700
StringAlign=LeftTop
Text=Welcome to Fluent!
X=(#_HeaderLeft#)
Y=(#_HeaderTop# + 10 * #Multiplier#)

[MeterDescription]
Meter=String
MeterStyle=StyleWelcomeText
FontWeight=400
FontSize=(11 * #Multiplier#)
Text=Version: #Version##CRLF#Developer: nenw*#CRLF##CRLF#To make sure all features work perfectly, please read the manual first!
X=(#_HeaderLeft#)
Y=(60 * #Multiplier#)r
W=(#_Width# - #_HeaderLeft# - #_HeaderRight#)
ClipString=2

InlinePattern=(.*?):
InlineSetting=Weight | 500

[MeterThemes]
Meter=String
MeterStyle=StyleWelcomeText | StyleButton
Text=[\xf8b4] Themes
X=(#_Width# - #_HeaderRight#)
Y=(75 * #Multiplier#)R
LeftMouseUpAction=[!ActivateConfig "Fluent\Settings" "Themes.ini"]

[MeterSettings]
Meter=String
MeterStyle=StyleWelcomeText | StyleButton
Text=[\xf8ba] Settings
X=(-130 * #Multiplier#)r
Y=0r
LeftMouseUpAction=["#@#Variables.inc"]

[MeterClose]
Meter=String
MeterStyle=StyleWelcomeText | StyleButton
Text=[\xf156] Close
X=(#_Width# - #_HeaderRight#)
Y=(10 * #Multiplier#)R
LeftMouseUpAction=[!DeactivateConfig "Fluent\Settings"]
